# generated using pymatgen
data_C
_symmetry_space_group_name_H-M   'P 1'
_cell_length_a   7.40317242
_cell_length_b   7.40317242
_cell_length_c   8.68503800
_cell_angle_alpha   90.00000000
_cell_angle_beta   90.00000000
_cell_angle_gamma   120.00000000
_symmetry_Int_Tables_number   1
_chemical_formula_structural   C
_chemical_formula_sum   C18
_cell_volume   412.22856602
_cell_formula_units_Z   18
loop_
 _symmetry_equiv_pos_site_id
 _symmetry_equiv_pos_as_xyz
  1  'x, y, z'
loop_
 _atom_site_type_symbol
 _atom_site_label
 _atom_site_symmetry_multiplicity
 _atom_site_fract_x
 _atom_site_fract_y
 _atom_site_fract_z
 _atom_site_occupancy
  C  C0  1  0.11111111  0.22222222  0.30000000  1
  C  C1  1  0.11111111  0.55555556  0.30000000  1
  C  C2  1  0.11111111  0.88888889  0.30000000  1
  C  C3  1  0.44444444  0.22222222  0.30000000  1
  C  C4  1  0.44444444  0.55555556  0.30000000  1
  C  C5  1  0.44444444  0.88888889  0.30000000  1
  C  C6  1  0.77777778  0.22222222  0.30000000  1
  C  C7  1  0.77777778  0.55555556  0.30000000  1
  C  C8  1  0.77777778  0.88888889  0.30000000  1
  C  C9  1  0.22222222  0.11111111  0.30000000  1
  C  C10  1  0.22222222  0.44444444  0.30000000  1
  C  C11  1  0.22222222  0.77777778  0.30000000  1
  C  C12  1  0.55555556  0.11111111  0.30000000  1
  C  C13  1  0.55555556  0.44444444  0.30000000  1
  C  C14  1  0.55555556  0.77777778  0.30000000  1
  C  C15  1  0.88888889  0.11111111  0.30000000  1
  C  C16  1  0.88888889  0.44444444  0.30000000  1
  C  C17  1  0.88888889  0.77777778  0.30000000  1
